/*--------------------------------*- C++ -*----------------------------------*\
| =========                 |                                                 |
| \\      /  F ield         | OpenFOAM: The Open Source CFD Toolbox           |
|  \\    /   O peration     | Version:  v2206                                 |
|   \\  /    A nd           | Website:  www.openfoam.com                      |
|    \\/     M anipulation  |                                                 |
\*---------------------------------------------------------------------------*/
FoamFile
{
    version     2.0;
    format      ascii;
    class       dictionary;
    object      controlDict;
}
// * * * * * * * * * * * * * * * * * * * * * * * * * * * * * * * * * * * * * //

application     simpleFoam;

libs ( "libOpenFOAM.so") ;

startFrom       startTime;

startTime       0;

stopAt          endTime;

endTime         2500;

deltaT          1;

writeControl    timeStep;

writeInterval   100;

purgeWrite      0;

writeFormat     ascii;

writePrecision  6;

writeCompression off;

timeFormat      general;

timePrecision   6;

runTimeModifiable true;

functions
{
    
    #includeFunc  flowRatePatch(name=outlet)
    #includeFunc  flowRatePatch(name=domainInlet)
    #includeFunc  flowRatePatch(name=domainOutlet)
    stresses
    {
        type stressTensor;
        writeControl   outputTime;
        libs    ("libstressTensor.so");
    }
    pressure
    {
        type            pressure;
        libs ("libfieldFunctionObjects.so");
        writeControl    outputTime;
        rho             rhoInf;
        rhoInf     1; 
        pRef    0;
        //calcTotal   no;
        //calcCoeff   no;
  }
    flux1
    {
        // Mandatory entries (unmodifiable)
        type            flux;
        libs            (fieldFunctionObjects);

        // Optional (inherited) entries
        field           U;
        executeControl  writeTime;
        executeInterval 1;
        writeControl    writeTime;
        writeInterval   1;

    }
    surfaceFieldValueOutlet
{
    // Mandatory entries (unmodifiable)
    type            surfaceFieldValue;
    libs            (fieldFunctionObjects);

    // Mandatory entries (runtime modifiable)
    fields          (p);
    operation       areaAverage;
    regionType      patch;
    name            outlet;
    writeFields     false;
    scalingFactor   1.0;
    writePrecision  8;
    writeToFile     true;
    useUserTime     true;
    region          region0;
    enabled         true;
    log             true;
    timeStart       0;
    timeEnd         1000;
    executeControl  timeStep;
    executeInterval 1;
    writeControl    timeStep;
    writeInterval   1;
}
    surfaceFieldValueBackWall
{
    // Mandatory entries (unmodifiable)
    type            surfaceFieldValue;
    libs            (fieldFunctionObjects);

    // Mandatory entries (runtime modifiable)
    fields          (p);
    operation       areaAverage;
    regionType      patch;
    name            backWall;
    writeFields     false;
    scalingFactor   1.0;
    writePrecision  8;
    writeToFile     true;
    useUserTime     true;
    region          region0;
    enabled         true;
    log             true;
    timeStart       0;
    timeEnd         1000;
    executeControl  timeStep;
    executeInterval 1;
    writeControl    timeStep;
    writeInterval   1;
}
    surfaceFieldValueInlet
{
    // Mandatory entries (unmodifiable)
    type            surfaceFieldValue;
    libs            (fieldFunctionObjects);

    // Mandatory entries (runtime modifiable)
    fields          (p);
    operation       areaAverage;
    regionType      patch;
    name            domainInlet;
    writeFields     false;
    scalingFactor   1.0;
    writePrecision  8;
    writeToFile     true;
    useUserTime     true;
    region          region0;
    enabled         true;
    log             true;
    timeStart       0;
    timeEnd         1000;
    executeControl  timeStep;
    executeInterval 1;
    writeControl    timeStep;
    writeInterval   1;
}
}


// ************************************************************************* //
